LTspice 24.0.12 for Windows
Circuit: * C:\Drive\semester 7\BTP-1\work4_EL\finite_element_model\spice_models\solar_cell.asc
Start Time: Wed Jan 22 11:03:12 2025
solver = Normal
Maximum thread count: 8
tnom = 27
temp = 27
method = modified trap
WARNING: Less than two connections to node b33.  This node is used by rseries22.
WARNING: Less than two connections to node b30.  This node is used by rb_f20.
WARNING: Less than two connections to node b03.  This node is used by rb_b02.
Total elapsed time: 0.077 seconds.

