LTspice 24.0.12 for Windows
Circuit: * C:\Users\ASUS\Desktop\Semesters\Sem 7\BTP\Continuous bus probing for unanimous voltage and current probing for PV array\LTSpice models\PV_array_files\Draft1.asc
Start Time: Mon Sep 23 11:59:27 2024
solver = Normal
Maximum thread count: 8
tnom = 27
temp = 27
method = modified trap
WARNING: Less than two connections to node nc_01.  This node is used by r:x1:1.
WARNING: Less than two connections to node nc_03.  This node is used by r:x1:2.
WARNING: Less than two connections to node nc_04.  This node is used by r:x1:3.
WARNING: Less than two connections to node nc_02.  This node is used by r:x1:4.
v1: Missing value, assumed 0V @ DC
Total elapsed time: 0.060 seconds.

