LTspice 24.0.12 for Windows
Circuit: * C:\Users\ASUS\Desktop\Semesters\Sem 7\BTP\Continuous bus probing for unanimous voltage and current probing for PV array\LTSpice models\PV_array_files\Draft4.asc
Start Time: Wed Oct 23 16:29:13 2024
solver = Normal
Maximum thread count: 8
tnom = 27
temp = 27
method = modified trap
WARNING: Node X1:NC_02 is floating.
WARNING: Node X1:NC_04 is floating.

WARNING: Less than two connections to node x1:nc_01.  This node is used by d:x1:1.
WARNING: Less than two connections to node x1:nc_02.  This node is used by d:x1:1.
WARNING: Less than two connections to node x1:nc_03.  This node is used by d:x1:2.
WARNING: Less than two connections to node x1:nc_04.  This node is used by d:x1:2.
Total elapsed time: 0.111 seconds.

