LTspice 24.0.12 for Windows
Circuit: * C:\Users\ASUS\Desktop\Semesters\Sem 7\BTP\Continuous bus probing for unanimous voltage and current probing for PV array\LTSpice models\PV_array_files\Draft3.asc
Start Time: Wed Oct  9 17:47:16 2024
solver = Normal
Maximum thread count: 8
tnom = 27
temp = 27
method = modified trap
Direct Newton iteration for .op point succeeded.
Total elapsed time: 0.059 seconds.

