LTspice 24.0.12 for Windows
Circuit: * C:\Users\ASUS\Desktop\Semesters\Sem 7\BTP\Continuous bus probing for unanimous voltage and current probing for PV array\LTSpice models\PV_array_files\PV_Model.asc
Start Time: Thu Oct  3 21:26:29 2024
solver = Normal
Maximum thread count: 8
tnom = 27
temp = 27
method = modified trap
WARNING: Less than two connections to node nc_01.  This node is used by r:x1:3.
WARNING: Less than two connections to node nc_02.  This node is used by r:x3:2.
WARNING: Less than two connections to node nc_03.  This node is used by r:x4:2.
WARNING: Less than two connections to node nc_04.  This node is used by r:x4:3.
WARNING: Less than two connections to node nc_05.  This node is used by r:x8:1.
WARNING: Less than two connections to node nc_06.  This node is used by r:x8:3.
WARNING: Less than two connections to node nc_07.  This node is used by r:x9:1.
WARNING: Less than two connections to node nc_08.  This node is used by r:x10:1.
WARNING: Less than two connections to node nc_09.  This node is used by r:x10:4.
WARNING: Less than two connections to node nc_10.  This node is used by r:x11:4.
WARNING: Less than two connections to node nc_12.  This node is used by r:x12:2.
WARNING: Less than two connections to node nc_11.  This node is used by r:x12:4.
v1: Missing value, assumed 0V @ DC
Total elapsed time: 0.063 seconds.

