LTspice 24.0.12 for Windows
Circuit: * C:\Users\ASUS\Desktop\Semesters\Sem 7\BTP\Continuous bus probing for unanimous voltage and current probing for PV array\LTSpice models\PV_array_files\PV_Motif.asc
Start Time: Sat Sep 21 11:27:58 2024
solver = Normal
Maximum thread count: 8
tnom = 27
temp = 27
method = modified trap
Fatal Error: This circuit does not have a conduction path to ground!
   Please flag a node as ground.
