LTspice 24.0.12 for Windows
Circuit: *C:\Users\ASUS\Desktop\Semesters\Sem 8\BTP\Simulation\Gold_Mk0\spice_model.asc
Start Time: Mon Apr 28 15:41:18 2025
solver = Normal
Maximum thread count: 8
tnom = 27
temp = 27
method = modified trap
Direct Newton iteration for .op point succeeded.
Total elapsed time: 0.008 seconds.

