LTspice 24.0.12 for Windows
Circuit: *C:\Users\ASUS\Desktop\Semesters\Sem 8\BTP\Simulation\FEM_Mk0\Model\sim1\solar_cell.asc
Start Time: Thu Mar  6 14:38:44 2025
solver = Normal
Maximum thread count: 8
tnom = 27
temp = 27
method = modified trap
WARNING: Less than two connections to node t1_0.  This node is used by rf_f0_0.
WARNING: Less than two connections to node t1_10.  This node is used by rf_f0_9.
WARNING: Less than two connections to node t2_0.  This node is used by rf_f1_0.
WARNING: Less than two connections to node t2_10.  This node is used by rf_f1_9.
WARNING: Less than two connections to node t3_0.  This node is used by rf_f2_0.
WARNING: Less than two connections to node t3_10.  This node is used by rf_f2_9.
WARNING: Less than two connections to node t4_0.  This node is used by rf_f3_0.
WARNING: Less than two connections to node t4_10.  This node is used by rf_f3_9.
WARNING: Less than two connections to node t5_0.  This node is used by rf_f4_0.
WARNING: Less than two connections to node t5_10.  This node is used by rf_f4_9.
WARNING: Less than two connections to node t6_0.  This node is used by rf_f5_0.
WARNING: Less than two connections to node t6_10.  This node is used by rf_f5_9.
WARNING: Less than two connections to node t7_0.  This node is used by rf_f6_0.
WARNING: Less than two connections to node t7_10.  This node is used by rf_f6_9.
WARNING: Less than two connections to node t8_0.  This node is used by rf_f7_0.
WARNING: Less than two connections to node t8_10.  This node is used by rf_f7_9.
WARNING: Less than two connections to node t9_0.  This node is used by rf_f8_0.
WARNING: Less than two connections to node t9_10.  This node is used by rf_f8_9.
WARNING: Less than two connections to node t10_0.  This node is used by rf_f9_0.
WARNING: Less than two connections to node t10_10.  This node is used by rf_f9_9.
WARNING: Less than two connections to node t11_0.  This node is used by rf_f10_0.
WARNING: Less than two connections to node t11_10.  This node is used by rf_f10_9.
WARNING: Less than two connections to node t12_0.  This node is used by rf_f11_0.
WARNING: Less than two connections to node t12_10.  This node is used by rf_f11_9.
WARNING: Less than two connections to node t13_0.  This node is used by rf_f12_0.
WARNING: Less than two connections to node t13_10.  This node is used by rf_f12_9.
WARNING: Less than two connections to node t14_0.  This node is used by rf_f13_0.
WARNING: Less than two connections to node t14_10.  This node is used by rf_f13_9.
WARNING: Less than two connections to node t15_0.  This node is used by rf_f14_0.
WARNING: Less than two connections to node t15_10.  This node is used by rf_f14_9.
WARNING: Less than two connections to node t16_0.  This node is used by rf_f15_0.
WARNING: Less than two connections to node t16_10.  This node is used by rf_f15_9.
WARNING: Less than two connections to node t17_0.  This node is used by rf_f16_0.
WARNING: Less than two connections to node t17_10.  This node is used by rf_f16_9.
WARNING: Less than two connections to node t18_0.  This node is used by rf_f17_0.
WARNING: Less than two connections to node t18_10.  This node is used by rf_f17_9.
WARNING: Less than two connections to node t19_0.  This node is used by rf_f18_0.
WARNING: Less than two connections to node t19_10.  This node is used by rf_f18_9.
WARNING: Less than two connections to node t20_0.  This node is used by rf_f19_0.
WARNING: Less than two connections to node t20_10.  This node is used by rf_f19_9.
WARNING: Less than two connections to node t21_0.  This node is used by rf_f20_0.
WARNING: Less than two connections to node t21_10.  This node is used by rf_f20_9.
WARNING: Less than two connections to node t22_0.  This node is used by rf_f21_0.
WARNING: Less than two connections to node t22_10.  This node is used by rf_f21_9.
WARNING: Less than two connections to node t23_0.  This node is used by rf_f22_0.
WARNING: Less than two connections to node t23_10.  This node is used by rf_f22_9.
WARNING: Less than two connections to node t24_0.  This node is used by rf_f23_0.
WARNING: Less than two connections to node t24_10.  This node is used by rf_f23_9.
WARNING: Less than two connections to node t25_0.  This node is used by rf_f24_0.
WARNING: Less than two connections to node t25_10.  This node is used by rf_f24_9.
WARNING: Less than two connections to node t26_0.  This node is used by rf_f25_0.
WARNING: Less than two connections to node t26_10.  This node is used by rf_f25_9.
WARNING: Less than two connections to node t27_0.  This node is used by rf_f26_0.
WARNING: Less than two connections to node t27_10.  This node is used by rf_f26_9.
WARNING: Less than two connections to node t28_0.  This node is used by rf_f27_0.
WARNING: Less than two connections to node t28_10.  This node is used by rf_f27_9.
WARNING: Less than two connections to node t29_0.  This node is used by rf_f28_0.
WARNING: Less than two connections to node t29_10.  This node is used by rf_f28_9.
WARNING: Less than two connections to node t30_0.  This node is used by rf_f29_0.
WARNING: Less than two connections to node t30_10.  This node is used by rf_f29_9.
WARNING: Less than two connections to node t31_0.  This node is used by rf_f30_0.
WARNING: Less than two connections to node t31_10.  This node is used by rf_f30_9.
WARNING: Less than two connections to node t32_0.  This node is used by rf_f31_0.
WARNING: Less than two connections to node t32_10.  This node is used by rf_f31_9.
WARNING: Less than two connections to node t33_0.  This node is used by rf_f32_0.
WARNING: Less than two connections to node t33_10.  This node is used by rf_f32_9.
WARNING: Less than two connections to node t34_0.  This node is used by rf_f33_0.
WARNING: Less than two connections to node t34_10.  This node is used by rf_f33_9.
WARNING: Less than two connections to node t35_0.  This node is used by rf_f34_0.
WARNING: Less than two connections to node t35_10.  This node is used by rf_f34_9.
WARNING: Less than two connections to node t36_0.  This node is used by rf_f35_0.
WARNING: Less than two connections to node t36_10.  This node is used by rf_f35_9.
WARNING: Less than two connections to node t37_0.  This node is used by rf_f36_0.
WARNING: Less than two connections to node t37_10.  This node is used by rf_f36_9.
WARNING: Less than two connections to node t38_0.  This node is used by rf_f37_0.
WARNING: Less than two connections to node t38_10.  This node is used by rf_f37_9.
WARNING: Less than two connections to node t39_0.  This node is used by rf_f38_0.
WARNING: Less than two connections to node t39_10.  This node is used by rf_f38_9.
WARNING: Less than two connections to node t40_0.  This node is used by rf_f39_0.
WARNING: Less than two connections to node t40_10.  This node is used by rf_f39_9.
WARNING: Less than two connections to node t41_0.  This node is used by rf_f40_0.
WARNING: Less than two connections to node t41_10.  This node is used by rf_f40_9.
WARNING: Less than two connections to node t42_0.  This node is used by rf_f41_0.
WARNING: Less than two connections to node t42_10.  This node is used by rf_f41_9.
WARNING: Less than two connections to node t43_0.  This node is used by rf_f42_0.
WARNING: Less than two connections to node t43_10.  This node is used by rf_f42_9.
WARNING: Less than two connections to node t44_0.  This node is used by rf_f43_0.
WARNING: Less than two connections to node t44_10.  This node is used by rf_f43_9.
WARNING: Less than two connections to node t45_0.  This node is used by rf_f44_0.
WARNING: Less than two connections to node t45_10.  This node is used by rf_f44_9.
WARNING: Less than two connections to node t46_0.  This node is used by rf_f45_0.
WARNING: Less than two connections to node t46_10.  This node is used by rf_f45_9.
WARNING: Less than two connections to node t47_0.  This node is used by rf_f46_0.
WARNING: Less than two connections to node t47_10.  This node is used by rf_f46_9.
WARNING: Less than two connections to node t48_0.  This node is used by rf_f47_0.
WARNING: Less than two connections to node t48_10.  This node is used by rf_f47_9.
WARNING: Less than two connections to node t49_0.  This node is used by rf_f48_0.
WARNING: Less than two connections to node t49_10.  This node is used by rf_f48_9.
WARNING: Less than two connections to node t50_0.  This node is used by rf_f49_0.
WARNING: Less than two connections to node t50_10.  This node is used by rf_f49_9.
WARNING: Less than two connections to node t51_0.  This node is used by rf_f50_0.
WARNING: Less than two connections to node t51_10.  This node is used by rf_f50_9.
WARNING: Less than two connections to node t52_0.  This node is used by rf_f51_0.
WARNING: Less than two connections to node t52_10.  This node is used by rf_f51_9.
WARNING: Less than two connections to node t53_0.  This node is used by rf_f52_0.
WARNING: Less than two connections to node t53_10.  This node is used by rf_f52_9.
WARNING: Less than two connections to node t54_0.  This node is used by rf_f53_0.
WARNING: Less than two connections to node t54_10.  This node is used by rf_f53_9.
WARNING: Less than two connections to node t55_0.  This node is used by rf_f54_0.
WARNING: Less than two connections to node t55_10.  This node is used by rf_f54_9.
WARNING: Less than two connections to node t56_0.  This node is used by rf_f55_0.
WARNING: Less than two connections to node t56_10.  This node is used by rf_f55_9.
WARNING: Less than two connections to node t57_0.  This node is used by rf_f56_0.
WARNING: Less than two connections to node t57_10.  This node is used by rf_f56_9.
WARNING: Less than two connections to node t58_0.  This node is used by rf_f57_0.
WARNING: Less than two connections to node t58_10.  This node is used by rf_f57_9.
WARNING: Less than two connections to node t59_0.  This node is used by rf_f58_0.
WARNING: Less than two connections to node t59_10.  This node is used by rf_f58_9.
WARNING: Less than two connections to node t60_0.  This node is used by rf_f59_0.
WARNING: Less than two connections to node t60_10.  This node is used by rf_f59_9.
WARNING: Less than two connections to node t61_0.  This node is used by rf_f60_0.
WARNING: Less than two connections to node t61_10.  This node is used by rf_f60_9.
WARNING: Less than two connections to node t62_0.  This node is used by rf_f61_0.
WARNING: Less than two connections to node t62_10.  This node is used by rf_f61_9.
WARNING: Less than two connections to node t63_0.  This node is used by rf_f62_0.
WARNING: Less than two connections to node t63_10.  This node is used by rf_f62_9.
WARNING: Less than two connections to node t64_0.  This node is used by rf_f63_0.
WARNING: Less than two connections to node t64_10.  This node is used by rf_f63_9.
WARNING: Less than two connections to node t65_0.  This node is used by rf_f64_0.
WARNING: Less than two connections to node t65_10.  This node is used by rf_f64_9.
WARNING: Less than two connections to node t66_0.  This node is used by rf_f65_0.
WARNING: Less than two connections to node t66_10.  This node is used by rf_f65_9.
WARNING: Less than two connections to node t67_0.  This node is used by rf_f66_0.
WARNING: Less than two connections to node t67_10.  This node is used by rf_f66_9.
WARNING: Less than two connections to node t68_0.  This node is used by rf_f67_0.
WARNING: Less than two connections to node t68_10.  This node is used by rf_f67_9.
WARNING: Less than two connections to node t69_0.  This node is used by rf_f68_0.
WARNING: Less than two connections to node t69_10.  This node is used by rf_f68_9.
WARNING: Less than two connections to node t70_0.  This node is used by rf_f69_0.
WARNING: Less than two connections to node t70_10.  This node is used by rf_f69_9.
WARNING: Less than two connections to node t71_0.  This node is used by rf_f70_0.
WARNING: Less than two connections to node t71_10.  This node is used by rf_f70_9.
WARNING: Less than two connections to node t72_0.  This node is used by rf_f71_0.
WARNING: Less than two connections to node t72_10.  This node is used by rf_f71_9.
WARNING: Less than two connections to node t73_0.  This node is used by rf_f72_0.
WARNING: Less than two connections to node t73_10.  This node is used by rf_f72_9.
WARNING: Less than two connections to node t74_0.  This node is used by rf_f73_0.
WARNING: Less than two connections to node t74_10.  This node is used by rf_f73_9.
WARNING: Less than two connections to node t75_0.  This node is used by rf_f74_0.
WARNING: Less than two connections to node t75_10.  This node is used by rf_f74_9.
WARNING: Less than two connections to node t76_0.  This node is used by rf_f75_0.
WARNING: Less than two connections to node t76_10.  This node is used by rf_f75_9.
WARNING: Less than two connections to node t77_0.  This node is used by rf_f76_0.
WARNING: Less than two connections to node t77_10.  This node is used by rf_f76_9.
WARNING: Less than two connections to node t78_0.  This node is used by rf_f77_0.
WARNING: Less than two connections to node t78_10.  This node is used by rf_f77_9.
WARNING: Less than two connections to node t79_0.  This node is used by rf_f78_0.
WARNING: Less than two connections to node t79_10.  This node is used by rf_f78_9.
WARNING: Less than two connections to node t80_0.  This node is used by rf_f79_0.
WARNING: Less than two connections to node t80_10.  This node is used by rf_f79_9.
WARNING: Less than two connections to node t81_0.  This node is used by rf_f80_0.
WARNING: Less than two connections to node t81_10.  This node is used by rf_f80_9.
WARNING: Less than two connections to node t82_0.  This node is used by rf_f81_0.
WARNING: Less than two connections to node t82_10.  This node is used by rf_f81_9.
WARNING: Less than two connections to node t83_0.  This node is used by rf_f82_0.
WARNING: Less than two connections to node t83_10.  This node is used by rf_f82_9.
WARNING: Less than two connections to node t84_0.  This node is used by rf_f83_0.
WARNING: Less than two connections to node t84_10.  This node is used by rf_f83_9.
WARNING: Less than two connections to node t85_0.  This node is used by rf_f84_0.
WARNING: Less than two connections to node t85_10.  This node is used by rf_f84_9.
WARNING: Less than two connections to node t86_0.  This node is used by rf_f85_0.
WARNING: Less than two connections to node t86_10.  This node is used by rf_f85_9.
WARNING: Less than two connections to node t87_0.  This node is used by rf_f86_0.
WARNING: Less than two connections to node t87_10.  This node is used by rf_f86_9.
WARNING: Less than two connections to node t88_0.  This node is used by rf_f87_0.
WARNING: Less than two connections to node t88_10.  This node is used by rf_f87_9.
WARNING: Less than two connections to node t89_0.  This node is used by rf_f88_0.
WARNING: Less than two connections to node t89_10.  This node is used by rf_f88_9.
WARNING: Less than two connections to node t90_0.  This node is used by rf_f89_0.
WARNING: Less than two connections to node t90_10.  This node is used by rf_f89_9.
WARNING: Less than two connections to node t91_0.  This node is used by rf_f90_0.
WARNING: Less than two connections to node t91_10.  This node is used by rf_f90_9.
WARNING: Less than two connections to node t92_0.  This node is used by rf_f91_0.
WARNING: Less than two connections to node t92_10.  This node is used by rf_f91_9.
WARNING: Less than two connections to node t93_0.  This node is used by rf_f92_0.
WARNING: Less than two connections to node t93_10.  This node is used by rf_f92_9.
WARNING: Less than two connections to node t94_0.  This node is used by rf_f93_0.
WARNING: Less than two connections to node t94_10.  This node is used by rf_f93_9.
WARNING: Less than two connections to node t95_0.  This node is used by rf_f94_0.
WARNING: Less than two connections to node t95_10.  This node is used by rf_f94_9.
WARNING: Less than two connections to node t96_0.  This node is used by rf_f95_0.
WARNING: Less than two connections to node t96_10.  This node is used by rf_f95_9.
WARNING: Less than two connections to node t97_0.  This node is used by rf_f96_0.
WARNING: Less than two connections to node t97_10.  This node is used by rf_f96_9.
WARNING: Less than two connections to node t98_0.  This node is used by rf_f97_0.
WARNING: Less than two connections to node t98_10.  This node is used by rf_f97_9.
WARNING: Less than two connections to node t99_0.  This node is used by rf_f98_0.
WARNING: Less than two connections to node t99_10.  This node is used by rf_f98_9.
WARNING: Less than two connections to node t100_0.  This node is used by rf_f99_0.
WARNING: Less than two connections to node t100_10.  This node is used by rf_f99_9.
WARNING: Less than two connections to node t101_0.  This node is used by rf_f100_0.
WARNING: Less than two connections to node t101_10.  This node is used by rf_f100_9.
WARNING: Less than two connections to node t102_0.  This node is used by rf_f101_0.
WARNING: Less than two connections to node t102_10.  This node is used by rf_f101_9.
WARNING: Less than two connections to node t103_0.  This node is used by rf_f102_0.
WARNING: Less than two connections to node t103_10.  This node is used by rf_f102_9.
WARNING: Less than two connections to node t104_0.  This node is used by rf_f103_0.
WARNING: Less than two connections to node t104_10.  This node is used by rf_f103_9.
WARNING: Less than two connections to node t105_0.  This node is used by rf_f104_0.
WARNING: Less than two connections to node t105_10.  This node is used by rf_f104_9.
WARNING: Less than two connections to node t106_0.  This node is used by rf_f105_0.
WARNING: Less than two connections to node t106_10.  This node is used by rf_f105_9.
WARNING: Less than two connections to node t107_0.  This node is used by rf_f106_0.
WARNING: Less than two connections to node t107_10.  This node is used by rf_f106_9.
WARNING: Less than two connections to node t108_0.  This node is used by rf_f107_0.
WARNING: Less than two connections to node t108_10.  This node is used by rf_f107_9.
WARNING: Less than two connections to node t109_0.  This node is used by rf_f108_0.
WARNING: Less than two connections to node t109_10.  This node is used by rf_f108_9.
WARNING: Less than two connections to node t110_0.  This node is used by rf_f109_0.
WARNING: Less than two connections to node t110_10.  This node is used by rf_f109_9.
WARNING: Less than two connections to node t111_0.  This node is used by rf_f110_0.
WARNING: Less than two connections to node t111_10.  This node is used by rf_f110_9.
WARNING: Less than two connections to node t112_0.  This node is used by rf_f111_0.
WARNING: Less than two connections to node t112_10.  This node is used by rf_f111_9.
WARNING: Less than two connections to node t113_0.  This node is used by rf_f112_0.
WARNING: Less than two connections to node t113_10.  This node is used by rf_f112_9.
WARNING: Less than two connections to node t114_0.  This node is used by rf_f113_0.
WARNING: Less than two connections to node t114_10.  This node is used by rf_f113_9.
WARNING: Less than two connections to node t115_0.  This node is used by rf_f114_0.
WARNING: Less than two connections to node t115_10.  This node is used by rf_f114_9.
WARNING: Less than two connections to node t116_0.  This node is used by rf_f115_0.
WARNING: Less than two connections to node t116_10.  This node is used by rf_f115_9.
WARNING: Less than two connections to node t117_0.  This node is used by rf_f116_0.
WARNING: Less than two connections to node t117_10.  This node is used by rf_f116_9.
WARNING: Less than two connections to node t118_0.  This node is used by rf_f117_0.
WARNING: Less than two connections to node t118_10.  This node is used by rf_f117_9.
WARNING: Less than two connections to node t119_0.  This node is used by rf_f118_0.
WARNING: Less than two connections to node t119_10.  This node is used by rf_f118_9.
WARNING: Less than two connections to node t120_0.  This node is used by rf_f119_0.
WARNING: Less than two connections to node t120_10.  This node is used by rf_f119_9.
WARNING: Less than two connections to node t0_1.  This node is used by rf_b0_0.
WARNING: Less than two connections to node t121_1.  This node is used by rf_b120_0.
WARNING: Less than two connections to node t0_2.  This node is used by rf_b0_1.
WARNING: Less than two connections to node t121_2.  This node is used by rf_b120_1.
WARNING: Less than two connections to node t0_3.  This node is used by rf_b0_2.
WARNING: Less than two connections to node t121_3.  This node is used by rf_b120_2.
WARNING: Less than two connections to node t0_4.  This node is used by rf_b0_3.
WARNING: Less than two connections to node t121_4.  This node is used by rf_b120_3.
WARNING: Less than two connections to node t0_5.  This node is used by rf_b0_4.
WARNING: Less than two connections to node t121_5.  This node is used by rf_b120_4.
WARNING: Less than two connections to node t0_6.  This node is used by rf_b0_5.
WARNING: Less than two connections to node t121_6.  This node is used by rf_b120_5.
WARNING: Less than two connections to node t0_7.  This node is used by rf_b0_6.
WARNING: Less than two connections to node t121_7.  This node is used by rf_b120_6.
WARNING: Less than two connections to node t0_8.  This node is used by rf_b0_7.
WARNING: Less than two connections to node t121_8.  This node is used by rf_b120_7.
WARNING: Less than two connections to node t0_9.  This node is used by rf_b0_8.
WARNING: Less than two connections to node t121_9.  This node is used by rf_b120_8.
WARNING: Less than two connections to node b1_0.  This node is used by rb_f0_0.
WARNING: Less than two connections to node b1_10.  This node is used by rb_f0_9.
WARNING: Less than two connections to node b2_0.  This node is used by rb_f1_0.
WARNING: Less than two connections to node b2_10.  This node is used by rb_f1_9.
WARNING: Less than two connections to node b3_0.  This node is used by rb_f2_0.
WARNING: Less than two connections to node b3_10.  This node is used by rb_f2_9.
WARNING: Less than two connections to node b4_0.  This node is used by rb_f3_0.
WARNING: Less than two connections to node b4_10.  This node is used by rb_f3_9.
WARNING: Less than two connections to node b5_0.  This node is used by rb_f4_0.
WARNING: Less than two connections to node b5_10.  This node is used by rb_f4_9.
WARNING: Less than two connections to node b6_0.  This node is used by rb_f5_0.
WARNING: Less than two connections to node b6_10.  This node is used by rb_f5_9.
WARNING: Less than two connections to node b7_0.  This node is used by rb_f6_0.
WARNING: Less than two connections to node b7_10.  This node is used by rb_f6_9.
WARNING: Less than two connections to node b8_0.  This node is used by rb_f7_0.
WARNING: Less than two connections to node b8_10.  This node is used by rb_f7_9.
WARNING: Less than two connections to node b9_0.  This node is used by rb_f8_0.
WARNING: Less than two connections to node b9_10.  This node is used by rb_f8_9.
WARNING: Less than two connections to node b10_0.  This node is used by rb_f9_0.
WARNING: Less than two connections to node b10_10.  This node is used by rb_f9_9.
WARNING: Less than two connections to node b11_0.  This node is used by rb_f10_0.
WARNING: Less than two connections to node b11_10.  This node is used by rb_f10_9.
WARNING: Less than two connections to node b12_0.  This node is used by rb_f11_0.
WARNING: Less than two connections to node b12_10.  This node is used by rb_f11_9.
WARNING: Less than two connections to node b13_0.  This node is used by rb_f12_0.
WARNING: Less than two connections to node b13_10.  This node is used by rb_f12_9.
WARNING: Less than two connections to node b14_0.  This node is used by rb_f13_0.
WARNING: Less than two connections to node b14_10.  This node is used by rb_f13_9.
WARNING: Less than two connections to node b15_0.  This node is used by rb_f14_0.
WARNING: Less than two connections to node b15_10.  This node is used by rb_f14_9.
WARNING: Less than two connections to node b16_0.  This node is used by rb_f15_0.
WARNING: Less than two connections to node b16_10.  This node is used by rb_f15_9.
WARNING: Less than two connections to node b17_0.  This node is used by rb_f16_0.
WARNING: Less than two connections to node b17_10.  This node is used by rb_f16_9.
WARNING: Less than two connections to node b18_0.  This node is used by rb_f17_0.
WARNING: Less than two connections to node b18_10.  This node is used by rb_f17_9.
WARNING: Less than two connections to node b19_0.  This node is used by rb_f18_0.
WARNING: Less than two connections to node b19_10.  This node is used by rb_f18_9.
WARNING: Less than two connections to node b20_0.  This node is used by rb_f19_0.
WARNING: Less than two connections to node b20_10.  This node is used by rb_f19_9.
WARNING: Less than two connections to node b21_0.  This node is used by rb_f20_0.
WARNING: Less than two connections to node b21_10.  This node is used by rb_f20_9.
WARNING: Less than two connections to node b22_0.  This node is used by rb_f21_0.
WARNING: Less than two connections to node b22_10.  This node is used by rb_f21_9.
WARNING: Less than two connections to node b23_0.  This node is used by rb_f22_0.
WARNING: Less than two connections to node b23_10.  This node is used by rb_f22_9.
WARNING: Less than two connections to node b24_0.  This node is used by rb_f23_0.
WARNING: Less than two connections to node b24_10.  This node is used by rb_f23_9.
WARNING: Less than two connections to node b25_0.  This node is used by rb_f24_0.
WARNING: Less than two connections to node b25_10.  This node is used by rb_f24_9.
WARNING: Less than two connections to node b26_0.  This node is used by rb_f25_0.
WARNING: Less than two connections to node b26_10.  This node is used by rb_f25_9.
WARNING: Less than two connections to node b27_0.  This node is used by rb_f26_0.
WARNING: Less than two connections to node b27_10.  This node is used by rb_f26_9.
WARNING: Less than two connections to node b28_0.  This node is used by rb_f27_0.
WARNING: Less than two connections to node b28_10.  This node is used by rb_f27_9.
WARNING: Less than two connections to node b29_0.  This node is used by rb_f28_0.
WARNING: Less than two connections to node b29_10.  This node is used by rb_f28_9.
WARNING: Less than two connections to node b30_0.  This node is used by rb_f29_0.
WARNING: Less than two connections to node b30_10.  This node is used by rb_f29_9.
WARNING: Less than two connections to node b31_0.  This node is used by rb_f30_0.
WARNING: Less than two connections to node b31_10.  This node is used by rb_f30_9.
WARNING: Less than two connections to node b32_0.  This node is used by rb_f31_0.
WARNING: Less than two connections to node b32_10.  This node is used by rb_f31_9.
WARNING: Less than two connections to node b33_0.  This node is used by rb_f32_0.
WARNING: Less than two connections to node b33_10.  This node is used by rb_f32_9.
WARNING: Less than two connections to node b34_0.  This node is used by rb_f33_0.
WARNING: Less than two connections to node b34_10.  This node is used by rb_f33_9.
WARNING: Less than two connections to node b35_0.  This node is used by rb_f34_0.
WARNING: Less than two connections to node b35_10.  This node is used by rb_f34_9.
WARNING: Less than two connections to node b36_0.  This node is used by rb_f35_0.
WARNING: Less than two connections to node b36_10.  This node is used by rb_f35_9.
WARNING: Less than two connections to node b37_0.  This node is used by rb_f36_0.
WARNING: Less than two connections to node b37_10.  This node is used by rb_f36_9.
WARNING: Less than two connections to node b38_0.  This node is used by rb_f37_0.
WARNING: Less than two connections to node b38_10.  This node is used by rb_f37_9.
WARNING: Less than two connections to node b39_0.  This node is used by rb_f38_0.
WARNING: Less than two connections to node b39_10.  This node is used by rb_f38_9.
WARNING: Less than two connections to node b40_0.  This node is used by rb_f39_0.
WARNING: Less than two connections to node b40_10.  This node is used by rb_f39_9.
WARNING: Less than two connections to node b41_0.  This node is used by rb_f40_0.
WARNING: Less than two connections to node b41_10.  This node is used by rb_f40_9.
WARNING: Less than two connections to node b42_0.  This node is used by rb_f41_0.
WARNING: Less than two connections to node b42_10.  This node is used by rb_f41_9.
WARNING: Less than two connections to node b43_0.  This node is used by rb_f42_0.
WARNING: Less than two connections to node b43_10.  This node is used by rb_f42_9.
WARNING: Less than two connections to node b44_0.  This node is used by rb_f43_0.
WARNING: Less than two connections to node b44_10.  This node is used by rb_f43_9.
WARNING: Less than two connections to node b45_0.  This node is used by rb_f44_0.
WARNING: Less than two connections to node b45_10.  This node is used by rb_f44_9.
WARNING: Less than two connections to node b46_0.  This node is used by rb_f45_0.
WARNING: Less than two connections to node b46_10.  This node is used by rb_f45_9.
WARNING: Less than two connections to node b47_0.  This node is used by rb_f46_0.
WARNING: Less than two connections to node b47_10.  This node is used by rb_f46_9.
WARNING: Less than two connections to node b48_0.  This node is used by rb_f47_0.
WARNING: Less than two connections to node b48_10.  This node is used by rb_f47_9.
WARNING: Less than two connections to node b49_0.  This node is used by rb_f48_0.
WARNING: Less than two connections to node b49_10.  This node is used by rb_f48_9.
WARNING: Less than two connections to node b50_0.  This node is used by rb_f49_0.
WARNING: Less than two connections to node b50_10.  This node is used by rb_f49_9.
WARNING: Less than two connections to node b51_0.  This node is used by rb_f50_0.
WARNING: Less than two connections to node b51_10.  This node is used by rb_f50_9.
WARNING: Less than two connections to node b52_0.  This node is used by rb_f51_0.
WARNING: Less than two connections to node b52_10.  This node is used by rb_f51_9.
WARNING: Less than two connections to node b53_0.  This node is used by rb_f52_0.
WARNING: Less than two connections to node b53_10.  This node is used by rb_f52_9.
WARNING: Less than two connections to node b54_0.  This node is used by rb_f53_0.
WARNING: Less than two connections to node b54_10.  This node is used by rb_f53_9.
WARNING: Less than two connections to node b55_0.  This node is used by rb_f54_0.
WARNING: Less than two connections to node b55_10.  This node is used by rb_f54_9.
WARNING: Less than two connections to node b56_0.  This node is used by rb_f55_0.
WARNING: Less than two connections to node b56_10.  This node is used by rb_f55_9.
WARNING: Less than two connections to node b57_0.  This node is used by rb_f56_0.
WARNING: Less than two connections to node b57_10.  This node is used by rb_f56_9.
WARNING: Less than two connections to node b58_0.  This node is used by rb_f57_0.
WARNING: Less than two connections to node b58_10.  This node is used by rb_f57_9.
WARNING: Less than two connections to node b59_0.  This node is used by rb_f58_0.
WARNING: Less than two connections to node b59_10.  This node is used by rb_f58_9.
WARNING: Less than two connections to node b60_0.  This node is used by rb_f59_0.
WARNING: Less than two connections to node b60_10.  This node is used by rb_f59_9.
WARNING: Less than two connections to node b61_0.  This node is used by rb_f60_0.
WARNING: Less than two connections to node b61_10.  This node is used by rb_f60_9.
WARNING: Less than two connections to node b62_0.  This node is used by rb_f61_0.
WARNING: Less than two connections to node b62_10.  This node is used by rb_f61_9.
WARNING: Less than two connections to node b63_0.  This node is used by rb_f62_0.
WARNING: Less than two connections to node b63_10.  This node is used by rb_f62_9.
WARNING: Less than two connections to node b64_0.  This node is used by rb_f63_0.
WARNING: Less than two connections to node b64_10.  This node is used by rb_f63_9.
WARNING: Less than two connections to node b65_0.  This node is used by rb_f64_0.
WARNING: Less than two connections to node b65_10.  This node is used by rb_f64_9.
WARNING: Less than two connections to node b66_0.  This node is used by rb_f65_0.
WARNING: Less than two connections to node b66_10.  This node is used by rb_f65_9.
WARNING: Less than two connections to node b67_0.  This node is used by rb_f66_0.
WARNING: Less than two connections to node b67_10.  This node is used by rb_f66_9.
WARNING: Less than two connections to node b68_0.  This node is used by rb_f67_0.
WARNING: Less than two connections to node b68_10.  This node is used by rb_f67_9.
WARNING: Less than two connections to node b69_0.  This node is used by rb_f68_0.
WARNING: Less than two connections to node b69_10.  This node is used by rb_f68_9.
WARNING: Less than two connections to node b70_0.  This node is used by rb_f69_0.
WARNING: Less than two connections to node b70_10.  This node is used by rb_f69_9.
WARNING: Less than two connections to node b71_0.  This node is used by rb_f70_0.
WARNING: Less than two connections to node b71_10.  This node is used by rb_f70_9.
WARNING: Less than two connections to node b72_0.  This node is used by rb_f71_0.
WARNING: Less than two connections to node b72_10.  This node is used by rb_f71_9.
WARNING: Less than two connections to node b73_0.  This node is used by rb_f72_0.
WARNING: Less than two connections to node b73_10.  This node is used by rb_f72_9.
WARNING: Less than two connections to node b74_0.  This node is used by rb_f73_0.
WARNING: Less than two connections to node b74_10.  This node is used by rb_f73_9.
WARNING: Less than two connections to node b75_0.  This node is used by rb_f74_0.
WARNING: Less than two connections to node b75_10.  This node is used by rb_f74_9.
WARNING: Less than two connections to node b76_0.  This node is used by rb_f75_0.
WARNING: Less than two connections to node b76_10.  This node is used by rb_f75_9.
WARNING: Less than two connections to node b77_0.  This node is used by rb_f76_0.
WARNING: Less than two connections to node b77_10.  This node is used by rb_f76_9.
WARNING: Less than two connections to node b78_0.  This node is used by rb_f77_0.
WARNING: Less than two connections to node b78_10.  This node is used by rb_f77_9.
WARNING: Less than two connections to node b79_0.  This node is used by rb_f78_0.
WARNING: Less than two connections to node b79_10.  This node is used by rb_f78_9.
WARNING: Less than two connections to node b80_0.  This node is used by rb_f79_0.
WARNING: Less than two connections to node b80_10.  This node is used by rb_f79_9.
WARNING: Less than two connections to node b81_0.  This node is used by rb_f80_0.
WARNING: Less than two connections to node b81_10.  This node is used by rb_f80_9.
WARNING: Less than two connections to node b82_0.  This node is used by rb_f81_0.
WARNING: Less than two connections to node b82_10.  This node is used by rb_f81_9.
WARNING: Less than two connections to node b83_0.  This node is used by rb_f82_0.
WARNING: Less than two connections to node b83_10.  This node is used by rb_f82_9.
WARNING: Less than two connections to node b84_0.  This node is used by rb_f83_0.
WARNING: Less than two connections to node b84_10.  This node is used by rb_f83_9.
WARNING: Less than two connections to node b85_0.  This node is used by rb_f84_0.
WARNING: Less than two connections to node b85_10.  This node is used by rb_f84_9.
WARNING: Less than two connections to node b86_0.  This node is used by rb_f85_0.
WARNING: Less than two connections to node b86_10.  This node is used by rb_f85_9.
WARNING: Less than two connections to node b87_0.  This node is used by rb_f86_0.
WARNING: Less than two connections to node b87_10.  This node is used by rb_f86_9.
WARNING: Less than two connections to node b88_0.  This node is used by rb_f87_0.
WARNING: Less than two connections to node b88_10.  This node is used by rb_f87_9.
WARNING: Less than two connections to node b89_0.  This node is used by rb_f88_0.
WARNING: Less than two connections to node b89_10.  This node is used by rb_f88_9.
WARNING: Less than two connections to node b90_0.  This node is used by rb_f89_0.
WARNING: Less than two connections to node b90_10.  This node is used by rb_f89_9.
WARNING: Less than two connections to node b91_0.  This node is used by rb_f90_0.
WARNING: Less than two connections to node b91_10.  This node is used by rb_f90_9.
WARNING: Less than two connections to node b92_0.  This node is used by rb_f91_0.
WARNING: Less than two connections to node b92_10.  This node is used by rb_f91_9.
WARNING: Less than two connections to node b93_0.  This node is used by rb_f92_0.
WARNING: Less than two connections to node b93_10.  This node is used by rb_f92_9.
WARNING: Less than two connections to node b94_0.  This node is used by rb_f93_0.
WARNING: Less than two connections to node b94_10.  This node is used by rb_f93_9.
WARNING: Less than two connections to node b95_0.  This node is used by rb_f94_0.
WARNING: Less than two connections to node b95_10.  This node is used by rb_f94_9.
WARNING: Less than two connections to node b96_0.  This node is used by rb_f95_0.
WARNING: Less than two connections to node b96_10.  This node is used by rb_f95_9.
WARNING: Less than two connections to node b97_0.  This node is used by rb_f96_0.
WARNING: Less than two connections to node b97_10.  This node is used by rb_f96_9.
WARNING: Less than two connections to node b98_0.  This node is used by rb_f97_0.
WARNING: Less than two connections to node b98_10.  This node is used by rb_f97_9.
WARNING: Less than two connections to node b99_0.  This node is used by rb_f98_0.
WARNING: Less than two connections to node b99_10.  This node is used by rb_f98_9.
WARNING: Less than two connections to node b100_0.  This node is used by rb_f99_0.
WARNING: Less than two connections to node b100_10.  This node is used by rb_f99_9.
WARNING: Less than two connections to node b101_0.  This node is used by rb_f100_0.
WARNING: Less than two connections to node b101_10.  This node is used by rb_f100_9.
WARNING: Less than two connections to node b102_0.  This node is used by rb_f101_0.
WARNING: Less than two connections to node b102_10.  This node is used by rb_f101_9.
WARNING: Less than two connections to node b103_0.  This node is used by rb_f102_0.
WARNING: Less than two connections to node b103_10.  This node is used by rb_f102_9.
WARNING: Less than two connections to node b104_0.  This node is used by rb_f103_0.
WARNING: Less than two connections to node b104_10.  This node is used by rb_f103_9.
WARNING: Less than two connections to node b105_0.  This node is used by rb_f104_0.
WARNING: Less than two connections to node b105_10.  This node is used by rb_f104_9.
WARNING: Less than two connections to node b106_0.  This node is used by rb_f105_0.
WARNING: Less than two connections to node b106_10.  This node is used by rb_f105_9.
WARNING: Less than two connections to node b107_0.  This node is used by rb_f106_0.
WARNING: Less than two connections to node b107_10.  This node is used by rb_f106_9.
WARNING: Less than two connections to node b108_0.  This node is used by rb_f107_0.
WARNING: Less than two connections to node b108_10.  This node is used by rb_f107_9.
WARNING: Less than two connections to node b109_0.  This node is used by rb_f108_0.
WARNING: Less than two connections to node b109_10.  This node is used by rb_f108_9.
WARNING: Less than two connections to node b110_0.  This node is used by rb_f109_0.
WARNING: Less than two connections to node b110_10.  This node is used by rb_f109_9.
WARNING: Less than two connections to node b111_0.  This node is used by rb_f110_0.
WARNING: Less than two connections to node b111_10.  This node is used by rb_f110_9.
WARNING: Less than two connections to node b112_0.  This node is used by rb_f111_0.
WARNING: Less than two connections to node b112_10.  This node is used by rb_f111_9.
WARNING: Less than two connections to node b113_0.  This node is used by rb_f112_0.
WARNING: Less than two connections to node b113_10.  This node is used by rb_f112_9.
WARNING: Less than two connections to node b114_0.  This node is used by rb_f113_0.
WARNING: Less than two connections to node b114_10.  This node is used by rb_f113_9.
WARNING: Less than two connections to node b115_0.  This node is used by rb_f114_0.
WARNING: Less than two connections to node b115_10.  This node is used by rb_f114_9.
WARNING: Less than two connections to node b116_0.  This node is used by rb_f115_0.
WARNING: Less than two connections to node b116_10.  This node is used by rb_f115_9.
WARNING: Less than two connections to node b117_0.  This node is used by rb_f116_0.
WARNING: Less than two connections to node b117_10.  This node is used by rb_f116_9.
WARNING: Less than two connections to node b118_0.  This node is used by rb_f117_0.
WARNING: Less than two connections to node b118_10.  This node is used by rb_f117_9.
WARNING: Less than two connections to node b119_0.  This node is used by rb_f118_0.
WARNING: Less than two connections to node b119_10.  This node is used by rb_f118_9.
WARNING: Less than two connections to node b120_0.  This node is used by rb_f119_0.
WARNING: Less than two connections to node b120_10.  This node is used by rb_f119_9.
WARNING: Less than two connections to node b0_1.  This node is used by rb_b0_0.
WARNING: Less than two connections to node b121_1.  This node is used by rb_b120_0.
WARNING: Less than two connections to node b0_2.  This node is used by rb_b0_1.
WARNING: Less than two connections to node b121_2.  This node is used by rb_b120_1.
WARNING: Less than two connections to node b0_3.  This node is used by rb_b0_2.
WARNING: Less than two connections to node b121_3.  This node is used by rb_b120_2.
WARNING: Less than two connections to node b0_4.  This node is used by rb_b0_3.
WARNING: Less than two connections to node b121_4.  This node is used by rb_b120_3.
WARNING: Less than two connections to node b0_5.  This node is used by rb_b0_4.
WARNING: Less than two connections to node b121_5.  This node is used by rb_b120_4.
WARNING: Less than two connections to node b0_6.  This node is used by rb_b0_5.
WARNING: Less than two connections to node b121_6.  This node is used by rb_b120_5.
WARNING: Less than two connections to node b0_7.  This node is used by rb_b0_6.
WARNING: Less than two connections to node b121_7.  This node is used by rb_b120_6.
WARNING: Less than two connections to node b0_8.  This node is used by rb_b0_7.
WARNING: Less than two connections to node b121_8.  This node is used by rb_b120_7.
WARNING: Less than two connections to node b0_9.  This node is used by rb_b0_8.
WARNING: Less than two connections to node b121_9.  This node is used by rb_b120_8.
Total elapsed time: 0.946 seconds.

