LTspice 24.0.12 for Windows
Circuit: * C:\Drive\semester 7\BTP-1\work4_EL\finite_element_model\EL_model\sim1\solar_cell.asc
Start Time: Mon Mar  3 11:20:04 2025
solver = Normal
Maximum thread count: 8
tnom = 27
temp = 27
method = modified trap
.OP point found by inspection.
Total elapsed time: 0.534 seconds.

